Version 4
SHEET 1 880 680
WIRE -16 -48 -16 -64
WIRE 256 48 256 32
WIRE -48 112 -256 112
WIRE 48 112 -48 112
WIRE 256 112 128 112
WIRE 368 112 256 112
WIRE 416 112 368 112
WIRE 592 112 496 112
WIRE -256 128 -256 112
WIRE -48 144 -48 112
WIRE 368 144 368 112
WIRE 304 176 256 176
WIRE 592 176 528 176
WIRE 528 192 528 176
WIRE 592 192 592 176
WIRE -256 256 -256 208
WIRE -48 256 -48 224
WIRE -48 256 -256 256
WIRE 48 256 -48 256
WIRE 256 256 128 256
WIRE 368 256 368 224
WIRE 368 256 256 256
WIRE 416 256 368 256
WIRE 592 256 496 256
FLAG 256 320 0
FLAG 304 176 0
FLAG 528 192 0
FLAG -16 -64 AVCC
FLAG 256 32 AVCC
FLAG 256 192 AVCC
FLAG -16 32 0
SYMBOL res -64 128 R0
SYMATTR InstName R1
SYMATTR Value 1k
SYMATTR SpiceLine tol=5
SYMBOL res 352 128 R0
SYMATTR InstName R2
SYMATTR Value 20
SYMATTR SpiceLine tol=5
SYMBOL res 400 128 R270
WINDOW 0 32 56 VTop 0
WINDOW 3 0 56 VBottom 0
SYMATTR InstName R3
SYMATTR Value 1k
SYMATTR SpiceLine tol=5
SYMBOL res 512 240 R90
WINDOW 0 0 56 VBottom 0
WINDOW 3 32 56 VTop 0
SYMATTR InstName R4
SYMATTR Value 1k
SYMATTR SpiceLine tol=5
SYMBOL cap 576 112 R0
SYMATTR InstName C1
SYMATTR Value 33n
SYMBOL cap 576 192 R0
SYMATTR InstName C2
SYMATTR Value 33n
SYMBOL diode 272 112 R180
WINDOW 0 24 72 Left 0
WINDOW 3 24 0 Left 0
SYMATTR InstName D1
SYMBOL diode 272 176 R180
WINDOW 0 24 72 Left 0
WINDOW 3 24 0 Left 0
SYMATTR InstName D2
SYMBOL diode 272 256 R180
WINDOW 0 24 72 Left 0
WINDOW 3 24 0 Left 0
SYMATTR InstName D3
SYMBOL diode 272 320 R180
WINDOW 0 24 72 Left 0
WINDOW 3 24 0 Left 0
SYMATTR InstName D4
SYMBOL Misc\\signal -16 -64 R0
WINDOW 123 0 0 Left 0
WINDOW 39 0 0 Left 0
SYMATTR InstName V2
SYMATTR Value 3
SYMBOL res 144 96 R90
WINDOW 0 0 56 VBottom 0
WINDOW 3 32 56 VTop 0
SYMATTR InstName R5
SYMATTR Value 0.4
SYMATTR SpiceLine tol=5
SYMBOL res 144 240 R90
WINDOW 0 0 56 VBottom 0
WINDOW 3 32 56 VTop 0
SYMATTR InstName R6
SYMATTR Value 0.4
SYMATTR SpiceLine tol=5
SYMBOL current -256 128 R0
WINDOW 123 0 0 Left 0
WINDOW 39 0 0 Left 0
SYMATTR InstName I1
SYMATTR Value SINE(0 10m 60)
TEXT -288 344 Left 0 !.tran 0.2
